Circuit: * C:\Users\osman\mathlabdocs\4-2\EE464\EE464-TERM-RPOJECT\Sim\1241(UC3845).asc

Direct Newton iteration failed to find .op point.  (Use ".option noopiter" to skip.)
Starting Gmin stepping
Gmin = 10
Gmin = 1.07374
Gmin = 0.115292
Gmin = 0.0123794
Gmin = 0.00132923
Gmin = 0.000142725
Gmin = 1.5325e-005
Gmin = 1.6455e-006
Gmin = 1.76685e-007
Gmin = 1.89714e-008
Gmin = 2.03704e-009
Gmin = 2.18725e-010
Gmin = 2.34854e-011
Gmin = 2.52173e-012
Gmin = 2.70769e-013
Gmin = 0
Gmin stepping succeeded in finding the operating point.


Date: Fri May 13 18:04:40 2022
Total elapsed time: 10.269 seconds.

tnom = 27
temp = 27
method = modified trap
totiter = 944717
traniter = 944318
tranpoints = 270054
accept = 191194
rejected = 78860
matrix size = 55
fillins = 43
solver = Normal
Thread vector: 4.4/3.6[2] 2.0/2.7[1] 0.4/1.2[1] 0.2/1.0[1]  2592/500
Matrix Compiler1: 4.74 KB object code size  0.8/0.4/[0.3]
Matrix Compiler2: 4.59 KB object code size  0.5/0.7/[0.3]

