Circuit: * C:\Users\osman\mathlabdocs\4-2\EE464\EE464-TERM-RPOJECT\Sim\newsim.asc

Direct Newton iteration failed to find .op point.  (Use ".option noopiter" to skip.)
Starting Gmin stepping
Gmin = 10
Gmin = 1.07374
Gmin = 0.115292
Gmin = 0.0123794
Gmin = 0.00132923
Gmin = 0.000142725
Gmin = 1.5325e-005
Gmin = 1.6455e-006
Gmin = 1.76685e-007
Gmin = 1.89714e-008
Gmin = 2.03704e-009
Gmin = 2.18725e-010
Gmin = 2.34854e-011
Gmin = 2.52173e-012
Gmin = 2.70769e-013
Gmin = 0
Gmin stepping succeeded in finding the operating point.


Date: Wed Jun 01 21:48:23 2022
Total elapsed time: 20.030 seconds.

tnom = 27
temp = 27
method = modified trap
totiter = 1993406
traniter = 1993003
tranpoints = 524455
accept = 366932
rejected = 157523
matrix size = 58
fillins = 40
solver = Normal
Matrix Compiler1: 4.60 KB object code size  0.8/1.1/[0.3]
Matrix Compiler2: 4.79 KB object code size  0.7/1.5/[0.3]

